#
# Generated from file heptane_mech.txt
# by ck2cti on Tue Feb 17 11:15:00 2015
#
# Transport data from file tran_heptane.txt.

units(length = "cm", time = "s", quantity = "mol", act_energy = "cal/mol")


ideal_gas(name = "heptane_mech",
      elements = " C  H  N  O  Ar  He ",
      species = """ H  H2  O  O2  OH  H2O  N2  HO2  H2O2  AR 
                   CO  CO2  CH2O  HCO  HO2CHO  O2CHO  HOCHO  OCHO  HOCH2O2H  HOCH2O2 
                   OCH2O2H  HOCH2O  CH3OH  CH2OH  CH3O  CH3O2H  CH3O2  CH4  CH3  CH2 
                   CH2(S)  C  CH  C2H6  C2H5  C2H4  C2H3  C2H2  C2H  CH3CHO 
                   CH3CO  CH2CHO  CH2CO  HCCO  HCCOH  CH3CO3H  CH3CO3  CH3CO2  C2H5OH  C2H5O 
                   PC2H4OH  SC2H4OH  O2C2H4OH  C2H5O2H  C2H5O2  C2H4O2H  C2H4O1-2  C2H3O1-2  CH3COCH3  CH3COCH2 
                   CH3COCH2O2  CH3COCH2O2H  CH3COCH2O  C2H3CHO  C2H3CO  C2H5CHO  C2H5CO  CH3OCH3  CH3OCH2  CH3OCH2O2 
                   CH2OCH2O2H  CH3OCH2O2H  CH3OCH2O  O2CH2OCH2O2H  HO2CH2OCHO  OCH2OCHO  HOCH2OCO  CH3OCHO  CH3OCO  CH2OCHO 
                   HE  C3H8  IC3H7  NC3H7  C3H6  C3H5-A  C3H5-S  C3H5-T  C3H4-P  C3H4-A 
                   C3H3  C3H2  C3H5O  C3H6OOH1-2  C3H6OOH1-3  C3H6OOH2-1  C3H6OOH1-2O2  C3H6OOH1-3O2  C3H6OOH2-1O2  C3H6OOH2-2 
                   NC3H7O2H  IC3H7O2H  NC3H7O2  IC3H7O2  NC3H7O  IC3H7O  C3H6O1-2  C3H6O1-3  C3KET12  C3KET13 
                   C3KET21  C3H51-2,3OOH  C3H52-1,3OOH  C3H6OH  HOC3H6O2  CH3CHCO  AC3H5OOH  C2H3OOH  C4H10  C4H8-1 
                   C4H8-2  PC4H9  SC4H9  C4H71-1  C4H71-2  C4H71-3  C4H71-4  C4H72-2  C4H6  PC4H9O2H 
                   SC4H9O2H  PC4H9O2  SC4H9O2  PC4H9O  SC4H9O  C4H7O  C4H8O1-2  C4H8O1-3  C4H8O1-4  C4H8O2-3 
                   PC4H8OH  SC4H8OH  C4H8OH-1O2  C4H8OH-2O2  C4H8OOH1-1  C4H8OOH1-2  C4H8OOH1-3  C4H8OOH1-4  C4H8OOH2-1  C4H8OOH2-2 
                   C4H8OOH2-3  C4H8OOH2-4  C4H8OOH1-2O2  C4H8OOH1-3O2  C4H8OOH1-4O2  C4H8OOH2-1O2  C4H8OOH2-3O2  C4H8OOH2-4O2  NC4KET12  NC4KET13 
                   NC4KET14  NC4KET21  NC4KET23  NC4KET24  C2H5COCH3  C2H5COCH2  CH2CH2COCH3  CH3CHCOCH3  C2H3COCH3  CH3CHOOCOCH3 
                   CH2CHOOHCOCH3  NC3H7CHO  NC3H7CO  C3H6CHO-1  C3H6CHO-2  C3H6CHO-3  C2H5CHCO  SC3H5CHO  SC3H5CO  CH2CH2CHO 
                   IC4H10  IC4H9  TC4H9  IC4H8  IC4H7  TC4H9O2  IC4H9O2  TC4H8O2H-I  IC4H8O2H-I  IC4H8O2H-T 
                   IC4H8O  CC4H8O  IC4H9O  TC4H9O  IC4H9O2H  TC4H9O2H  IC4H7O  IC4H8OH  IO2C4H8OH  IC3H7CHO 
                   TC3H6CHO  IC3H7CO  IC3H6CHO  TC4H8OOH-IO2  IC4H8OOH-IO2  IC4H8OOH-TO2  IC4KETII  IC4KETIT  IC4H7OH  IC4H6OH 
                   IC3H5CHO  IC3H5CO  TC3H6OCHO  IC3H6CO  IC4H7OOH  TC3H6OHCHO  TC3H6OH  IC3H5OH  TC3H6O2CHO  TC3H6O2HCO 
                   IC3H5O2HCHO  CH2CCH2OH  TC4H8CHO  O2C4H8CHO  O2HC4H8CO  C3H5OH  TIC4H7Q2-I  IIC4H7Q2-T  IIC4H7Q2-I  CH2O2H 
                   NC5H12  C5H11-1  C5H11-2  C5H11-3  C5H10-1  C5H10-2  C5H81-3  C5H91-3  C5H91-4  C5H91-5 
                   C5H92-4  C5H92-5  C5H9O1-3  C5H9O2-4  C5H11O2H-1  C5H11O2H-2  C5H11O2H-3  C5H11O2-1  C5H11O2-2  C5H11O2-3 
                   C5H11O-1  C5H11O-2  C5H11O-3  C5H10OOH1-2  C5H10OOH1-3  C5H10OOH1-4  C5H10OOH1-5  C5H10OOH2-1  C5H10OOH2-3  C5H10OOH2-4 
                   C5H10OOH2-5  C5H10OOH3-2  C5H10OOH3-1  C5H10O1-2  C5H10O1-3  C5H10O1-4  C5H10O1-5  C5H10O2-3  C5H10O2-4  C5H10OOH1-2O2 
                   C5H10OOH1-3O2  C5H10OOH1-4O2  C5H10OOH1-5O2  C5H10OOH2-1O2  C5H10OOH2-3O2  C5H10OOH2-4O2  C5H10OOH2-5O2  C5H10OOH3-1O2  C5H10OOH3-2O2  NC5KET12 
                   NC5KET13  NC5KET14  NC5KET15  NC5KET21  NC5KET23  NC5KET24  NC5KET25  NC5KET31  NC5KET32  C5H10OH-1 
                   C5H10OH-2  O2C5H10OH-1  O2C5H10OH-2  NC6H14  C6H13-1  C6H13-2  C6H13-3  C6H12-1  C6H12-2  C6H12-3 
                   C6H111-3  C6H111-4  C6H111-5  C6H111-6  C6H112-4  C6H112-5  C6H112-6  C6H113-1  C6H11O1-3  C6H11O2-4 
                   C6H12O1-2  C6H12O1-3  C6H12O1-4  C6H12O1-5  C6H12O2-3  C6H12O2-4  C6H12O2-5  C6H12O3-4  C6H13O2H-1  C6H13O2H-2 
                   C6H13O2H-3  C6H13O2-1  C6H13O2-2  C6H13O2-3  C6H12OOH1-2  C6H12OOH1-3  C6H12OOH1-4  C6H12OOH1-5  C6H12OOH2-1  C6H12OOH2-3 
                   C6H12OOH2-4  C6H12OOH2-5  C6H12OOH2-6  C6H12OOH3-1  C6H12OOH3-2  C6H12OOH3-4  C6H12OOH3-5  C6H12OOH3-6  C6H12OOH1-2O2  C6H12OOH1-3O2 
                   C6H12OOH1-4O2  C6H12OOH1-5O2  C6H12OOH2-1O2  C6H12OOH2-3O2  C6H12OOH2-4O2  C6H12OOH2-5O2  C6H12OOH2-6O2  C6H12OOH3-1O2  C6H12OOH3-2O2  C6H12OOH3-4O2 
                   C6H12OOH3-5O2  C6H12OOH3-6O2  NC6KET12  NC6KET13  NC6KET14  NC6KET15  NC6KET21  NC6KET23  NC6KET24  NC6KET25 
                   NC6KET26  NC6KET31  NC6KET32  NC6KET34  NC6KET35  NC6KET36  C6H13O-1  C6H13O-2  C6H13O-3  C6H12OH-1 
                   C6H12OH-2  C6H12OH-3  O2C6H12OH-1  O2C6H12OH-2  O2C6H12OH-3  NC4H9CHO  NC4H9CO  C4H8CHO-1  C4H8CHO-2  C4H8CHO-3 
                   C4H8CHO-4  AC3H5CHO  AC3H5CO  C2H3CHCHO  NC3H7COCH3  NC3H7COCH2  C3H6COCH3-1  C3H6COCH3-2  C3H6COCH3-3  C2H5COC2H5 
                   C2H5COC2H4P  C2H5COC2H4S  C2H5COC2H3  PC2H4COC2H3  SC2H4COC2H3  NC7H16  C7H15-1  C7H15-2  C7H15-3  C7H15-4 
                   C7H14-1  C7H14-2  C7H14-3  C7H131-3  C7H131-4  C7H131-5  C7H131-6  C7H131-7  C7H132-4  C7H132-5 
                   C7H132-6  C7H132-7  C7H133-1  C7H133-5  C7H133-6  C7H133-7  C7H13O1-3  C7H13O2-4  C7H13O3-5  C7H15O2-1 
                   C7H15O2-2  C7H15O2-3  C7H15O2-4  C7H15O2H-1  C7H15O2H-2  C7H15O2H-3  C7H15O2H-4  C7H15O-1  C7H15O-2  C7H15O-3 
                   C7H15O-4  C7H14OOH1-2  C7H14OOH1-3  C7H14OOH1-4  C7H14OOH1-5  C7H14OOH2-1  C7H14OOH2-3  C7H14OOH2-4  C7H14OOH2-5  C7H14OOH2-6 
                   C7H14OOH3-1  C7H14OOH3-2  C7H14OOH3-4  C7H14OOH3-5  C7H14OOH3-6  C7H14OOH3-7  C7H14OOH4-1  C7H14OOH4-2  C7H14OOH4-3  C7H14OOH1-2O2 
                   C7H14OOH1-3O2  C7H14OOH1-4O2  C7H14OOH1-5O2  C7H14OOH2-1O2  C7H14OOH2-3O2  C7H14OOH2-4O2  C7H14OOH2-5O2  C7H14OOH2-6O2  C7H14OOH3-1O2  C7H14OOH3-2O2 
                   C7H14OOH3-4O2  C7H14OOH3-5O2  C7H14OOH3-6O2  C7H14OOH3-7O2  C7H14OOH4-1O2  C7H14OOH4-2O2  C7H14OOH4-3O2  C7H14O1-2  C7H14O1-3  C7H14O1-4 
                   C7H14O1-5  C7H14O2-3  C7H14O2-4  C7H14O2-5  C7H14O2-6  C7H14O3-4  C7H14O3-5  NC7KET12  NC7KET13  NC7KET14 
                   NC7KET15  NC7KET21  NC7KET23  NC7KET24  NC7KET25  NC7KET26  NC7KET31  NC7KET32  NC7KET34  NC7KET35 
                   NC7KET36  NC7KET37  NC7KET41  NC7KET42  NC7KET43  C7H14OH-1  C7H14OH-2  C7H14OH-3  O2C7H14OH-1  O2C7H14OH-2 
                   O2C7H14OH-3  NC5H11CHO  NC5H11CO  C5H10CHO-1  C5H10CHO-2  C5H10CHO-3  C5H10CHO-4  C5H10CHO-5  C4H7CHO1-4  C4H7CO1-4 
                   C4H6CHO1-43  C4H6CHO1-44  NC4H9COCH3  NC4H9COCH2  C4H8COCH3-1  C4H8COCH3-2  C4H8COCH3-3  C4H8COCH3-4  C4H7OOH1-4  C4H7O1-4 
                   C5H9OOH1-4  C5H9O1-4  C5H9OOH1-5  C5H9O1-5  C6H11OOH1-4  C6H11O1-4  C6H11OOH1-5  C6H11O1-5  C5H91-1  C4H7CHO1-1 
                   C4H7CO1-1  C4H6CHO1-14  C4H6CHO1-13  NC3H7COC2H5  C3H6COC2H5-1  C3H6COC2H5-2  C3H6COC2H5-3  NC3H7COC2H4P  NC3H7COC2H4S  CHCHCHO 
                   C6H101-3  C6H101-4  C6H101-5  C6H102-4  ETES1  MVOX  VTHF  EDHF  ETC6  KES1 
                   C6H111O2H-3  C6H111O2H-4  C6H111O2H-5  C6H111O2H-6  C6H112O2H-4  C6H112O2H-5  C6H112O2H-6  C6H113O2H-2  C6H113O2H-1  NC6D1KET34 
                   NC6D1KET35  NC6D1KET36  NC6D1KET43  NC6D1KET45  NC6D1KET46  NC6D1KET53  NC6D1KET54  NC6D1KET56  NC6D1KET63  NC6D1KET64 
                   NC6D1KET65  NC6D2KET45  NC6D2KET46  NC6D2KET54  NC6D2KET56  NC6D2KET64  NC6D2KET65  NC6D3KET12  NC6D3KET21  C6H112O2-1 
                   C6H111O2-3  C6H111O2-4  C6H111O2-5  C6H111O2-6  C6H112O2-4  C6H112O2-5  C6H112O2-6  C6H113O2-1  C6H113O2-2  C6H101OOH3-4 
                   C6H101OOH3-5  C6H101OOH3-6  C6H101OOH4-3  C6H101OOH4-5  C6H101OOH4-6  C6H101OOH5-3  C6H101OOH5-4  C6H101OOH5-6  C6H101OOH6-3  C6H101OOH6-4 
                   C6H101OOH6-5  C6H101OOH3-4O2  C6H101OOH3-5O2  C6H101OOH3-6O2  C6H101OOH4-3O2  C6H101OOH4-5O2  C6H101OOH4-6O2  C6H101OOH5-3O2  C6H101OOH5-4O2  C6H101OOH5-6O2 
                   C6H101OOH6-3O2  C6H101OOH6-4O2  C6H101OOH6-5O2  C6H102OOH5-4  C6H103OOH1-2  C6H102OOH4-5  C6H102OOH4-6  C6H102OOH5-6  C6H102OOH6-4  C6H102OOH6-5 
                   C6H103OOH2-1  C6H102OOH4-5O2  C6H102OOH4-6O2  C6H102OOH5-4O2  C6H102OOH5-6O2  C6H102OOH6-4O2  C6H102OOH6-5O2  C6H103OOH2-1O2  C6H103OOH1-2O2  C2H3COC3H7 
                   C5H81-4  C5H91O2-3  C5H91O2-4  C5H91O2-5  C5H81OOH3-4  C5H81OOH3-5  C5H81OOH4-3  C5H81OOH4-5  C5H81OOH5-4  C5H81OOH5-3 
                   C5H92O2-1  C5H81OOH3-4O2  C5H81OOH3-5O2  C5H81OOH4-3O2  C5H81OOH4-5O2  C5H81OOH5-3O2  C5H81OOH5-4O2  NC5D1KET34  NC5D1KET35  NC5D1KET43 
                   NC5D1KET45  NC5D1KET53  NC5D1KET54  CY3C5H8O """,
      reactions = "all",
      transport = "Mix",
      initial_state = state(temperature = 300.0,
                        pressure = OneAtm)    )



#-------------------------------------------------------------------------------
#  Species data 
#-------------------------------------------------------------------------------

species(name = "H",
    atoms = " H:1 ",
    thermo = (
       NASA( [  300.00,  1000.00], [  2.500000000E+00,   0.000000000E+00, 
                0.000000000E+00,   0.000000000E+00,   0.000000000E+00,
                2.547163000E+04,  -4.601176000E-01] ),
       NASA( [ 1000.00,  5000.00], [  2.500000000E+00,   0.000000000E+00, 
                0.000000000E+00,   0.000000000E+00,   0.000000000E+00,
                2.547163000E+04,  -4.601176000E-01] )
             ),
    transport = gas_transport(
                     geom = "atom",
                     diam = 2.05,
                     well_depth = 145),
    note = "120186"
       )

species(name = "H2",
    atoms = " H:2 ",
    thermo = (
       NASA( [  300.00,  1000.00], [  3.298124000E+00,   8.249442000E-04, 
               -8.143015000E-07,  -9.475434000E-11,   4.134872000E-13,
               -1.012521000E+03,  -3.294094000E+00] ),
       NASA( [ 1000.00,  5000.00], [  2.991423000E+00,   7.000644000E-04, 
               -5.633829000E-08,  -9.231578000E-12,   1.582752000E-15,
               -8.350340000E+02,  -1.355110000E+00] )
             ),
    transport = gas_transport(
                     geom = "linear",
                     diam = 2.92,
                     well_depth = 38,
                     polar = 0.79,
                     rot_relax = 280),
    note = "121286"
       )

species(name = "O",
    atoms = " O:1 ",
    thermo = (
       NASA( [  300.00,  1000.00], [  2.946429000E+00,  -1.638166000E-03, 
                2.421032000E-06,  -1.602843000E-09,   3.890696000E-13,
                2.914764000E+04,   2.963995000E+00] ),
       NASA( [ 1000.00,  5000.00], [  2.542060000E+00,  -2.755062000E-05, 
               -3.102803000E-09,   4.551067000E-12,  -4.368052000E-16,
                2.923080000E+04,   4.920308000E+00] )
             ),
    transport = gas_transport(
                     geom = "atom",
                     diam = 2.75,
                     well_depth = 80),
    note = "120186"
       )

species(name = "O2",
    atoms = " O:2 ",
    thermo = (
       NASA( [  300.00,  1000.00], [  3.212936000E+00,   1.127486000E-03, 
               -5.756150000E-07,   1.313877000E-09,  -8.768554000E-13,
               -1.005249000E+03,   6.034738000E+00] ),
       NASA( [ 1000.00,  5000.00], [  3.697578000E+00,   6.135197000E-04, 
               -1.258842000E-07,   1.775281000E-11,  -1.136435000E-15,
               -1.233930000E+03,   3.189166000E+00] )
             ),
    transport = gas_transport(
                     geom = "linear",
                     diam = 3.458,
                     well_depth = 107.4,
                     polar = 1.6,
                     rot_relax = 3.8),
    note = "121386"
       )

species(name = "OH",
    atoms = " H:1  O:1 ",
    thermo = (
       NASA( [  300.00,  1710.00], [  3.418962260E+00,   3.192558010E-04, 
               -3.082927170E-07,   3.644074940E-10,  -1.001954790E-13,
                3.452644480E+03,   2.544333720E+00] ),
       NASA( [ 1710.00,  5000.00], [  2.853760400E+00,   1.029943340E-03, 
               -2.326664770E-07,   1.937507040E-11,  -3.157598470E-16,
                3.699497200E+03,   5.787568250E+00] )
             ),
    transport = gas_transport(
                     geom = "linear",
                     diam = 2.75,
                     well_depth = 80),
    note = "7/13/ 0 RUCIC"
       )

species(name = "H2O",
    atoms = " H:2  O:1 ",
    thermo = (
       NASA( [  300.00,  1000.00], [  3.386842000E+00,   3.474982000E-03, 
               -6.354696000E-06,   6.968581000E-09,  -2.506588000E-12,
               -3.020811000E+04,   2.590233000E+00] ),
       NASA( [ 1000.00,  5000.00], [  2.672146000E+00,   3.056293000E-03, 
               -8.730260000E-07,   1.200996000E-10,  -6.391618000E-15,
               -2.989921000E+04,   6.862817000E+00] )
             ),
    transport = gas_transport(
                     geom = "nonlinear",
                     diam = 2.605,
                     well_depth = 572.4,
                     dipole = 1.844,
                     rot_relax = 4),
    note = "20387"
       )

species(name = "N2",
    atoms = " N:2 ",
    thermo = (
       NASA( [  300.00,  1000.00], [  3.298677000E+00,   1.408240000E-03, 
               -3.963222000E-06,   5.641515000E-09,  -2.444855000E-12,
               -1.020900000E+03,   3.950372000E+00] ),
       NASA( [ 1000.00,  5000.00], [  2.926640000E+00,   1.487977000E-03, 
               -5.684761000E-07,   1.009704000E-10,  -6.753351000E-15,
               -9.227977000E+02,   5.980528000E+00] )
             ),
    transport = gas_transport(
                     geom = "linear",
                     diam = 3.621,
                     well_depth = 97.53,
                     polar = 1.76,
                     rot_relax = 4),
    note = "121286"
       )

species(name = "HO2",
    atoms = " H:1  O:2 ",
    thermo = (
       NASA( [  200.00,  1000.00], [  4.301798010E+00,  -4.749120510E-03, 
                2.115828910E-05,  -2.427638940E-08,   9.292251240E-12,
                2.948080400E+02,   3.716662450E+00] ),
       NASA( [ 1000.00,  3500.00], [  4.017210900E+00,   2.239820130E-03, 
               -6.336581500E-07,   1.142463700E-10,  -1.079085350E-14,
                1.118567130E+02,   3.785102150E+00] )
             ),
    transport = gas_transport(
                     geom = "nonlinear",
                     diam = 3.458,
                     well_depth = 107.4,
                     rot_relax = 1),
    note = "L 5/89"
       )

species(name = "H2O2",
    atoms = " H:2  O:2 ",
    thermo = (
       NASA( [  300.00,  1000.00], [  3.388754000E+00,   6.569226000E-03, 
               -1.485013000E-07,  -4.625806000E-09,   2.471515000E-12,
               -1.766315000E+04,   6.785363000E+00] ),
       NASA( [ 1000.00,  5000.00], [  4.573167000E+00,   4.336136000E-03, 
               -1.474689000E-06,   2.348904000E-10,  -1.431654000E-14,
               -1.800696000E+04,   5.011370000E-01] )
             ),
    transport = gas_transport(
                     geom = "nonlinear",
                     diam = 3.458,
                     well_depth = 107.4,
                     rot_relax = 3.8),
    note = "120186"
       )

species(name = "AR",
    atoms = " Ar:1 ",
    thermo = (
       NASA( [  300.00,  1000.00], [  2.500000000E+00,   0.000000000E+00, 
                0.000000000E+00,   0.000000000E+00,   0.000000000E+00,
               -7.453750000E+02,   4.366001000E+00] ),
       NASA( [ 1000.00,  5000.00], [  2.500000000E+00,   0.000000000E+00, 
                0.000000000E+00,   0.000000000E+00,   0.000000000E+00,
               -7.453750000E+02,   4.366001000E+00] )
             ),
    transport = gas_transport(
                     geom = "atom",
                     diam = 3.33,
                     well_depth = 136.5),
    note = "120186"
       )

species(name = "CO",
    atoms = " C:1  O:1 ",
    thermo = (
       NASA( [  300.00,  1429.00], [  3.190363520E+00,   8.944199720E-04, 
               -3.249275630E-08,  -1.045999670E-10,   2.419656930E-14,
               -1.428690540E+04,   5.332779140E+00] ),
       NASA( [ 1429.00,  5000.00], [  3.112168900E+00,   1.159482830E-03, 
               -3.384803620E-07,   4.414030980E-11,  -2.128622280E-15,
               -1.427185390E+04,   5.717251770E+00] )
             ),
    transport = gas_transport(
                     geom = "linear",
                     diam = 3.65,
                     well_depth = 98.1,
                     polar = 1.95,
                     rot_relax = 1.8),
    note = "29/11/04"
       )

species(name = "CO2",
    atoms = " C:1  O:2 ",
    thermo = (
       NASA( [  300.00,  1380.00], [  2.579304900E+00,   8.246849870E-03, 
               -6.427160470E-06,   2.546370240E-09,  -4.120304430E-13,
               -4.841628300E+04,   8.811410410E+00] ),
       NASA( [ 1380.00,  5000.00], [  5.189530180E+00,   2.060064760E-03, 
               -7.335753240E-07,   1.170043740E-10,  -6.917292150E-15,
               -4.931789530E+04,  -5.182893030E+00] )
             ),
    transport = gas_transport(
                     geom = "linear",
                     diam = 3.763,
                     well_depth = 244,
                     polar = 2.65,
                     rot_relax = 2.1),
    note = "29/11/04"
       )

species(name = "CH2O",
    atoms = " C:1  H:2  O:1 ",
    thermo = (
       NASA( [  300.00,  1486.00], [  3.007541970E+00,   3.047294960E-03, 
                5.251092460E-06,  -5.120192810E-09,   1.271337950E-12,
               -1.411883970E+04,   8.101202330E+00] ),
       NASA( [ 1486.00,  5000.00], [  4.020683940E+00,   5.099034170E-03, 
               -1.764304800E-06,   2.760258790E-10,  -1.609980420E-14,
               -1.492872580E+04,   1.065255470E+00] )
             ),
    transport = gas_transport(
                     geom = "nonlinear",
                     diam = 3.59,
                     well_depth = 498,
                     rot_relax = 2),
    note = "6/29/04 RUSCI"
       )

species(name = "HCO",
    atoms = " H:1  C:1  O:1 ",
    thermo = (
       NASA( [  300.00,  1690.00], [  3.810499650E+00,   8.132698250E-04, 
                3.131647010E-06,  -2.394782680E-09,   5.068945540E-13,
                4.038599010E+03,   4.948431650E+00] ),
       NASA( [ 1690.00,  5000.00], [  3.441481640E+00,   3.521577190E-03, 
               -1.241361180E-06,   1.973286440E-10,  -1.165386160E-14,
                3.974096840E+03,   6.245934560E+00] )
             ),
    transport = gas_transport(
                     geom = "nonlinear",
                     diam = 3.59,
                     well_depth = 498),
    note = "29/11/04"
       )

species(name = "HO2CHO",
    atoms = " C:1  H:2  O:3 ",
    thermo = (
       NASA( [  300.00,  1378.00], [  2.424647260E+00,   2.197063800E-02, 
               -1.687055460E-05,   6.256121940E-09,  -9.116458430E-13,
               -3.548280060E+04,   1.750277960E+01] ),
       NASA( [ 1378.00,  5000.00], [  9.875038780E+00,   4.646637080E-03, 
               -1.672305220E-06,   2.686244130E-10,  -1.595952320E-14,
               -3.805024960E+04,  -2.249391550E+01] )
             ),
    transport = gas_transport(
                     geom = "nonlinear",
                     diam = 3.97,
                     well_depth = 436,
                     rot_relax = 2),
    note = "6/26/95 THERM"
       )

species(name = "O2CHO",
    atoms = " C:1  H:1  O:3 ",
    thermo = (
       NASA( [  300.00,  1368.00], [  3.960593090E+00,   1.060022790E-02, 
               -5.257133510E-06,   1.017167260E-09,  -2.874876020E-14,
               -1.735993830E+04,   1.178074830E+01] ),
       NASA( [ 1368.00,  5000.00], [  7.240751390E+00,   4.633129510E-03, 
               -1.636939950E-06,   2.597066930E-10,  -1.529646990E-14,
               -1.870276180E+04,  -6.495472120E+00] )
             ),
    transport = gas_transport(
                     geom = "nonlinear",
                     diam = 3.97,
                     well_depth = 436,
                     rot_relax = 2),
    note = "6/26/95 THERM"
       )

species(name = "HOCHO",
    atoms = " C:1  H:2  O:2 ",
    thermo = (
       NASA( [  300.00,  1419.00], [  1.280690210E+00,   1.528877580E-02, 
               -5.641504760E-06,  -1.229687990E-09,   8.142732330E-13,
               -4.643475240E+04,   1.831420810E+01] ),
       NASA( [ 1419.00,  5000.00], [  7.671344400E+00,   4.434263730E-03, 
               -1.608674360E-06,   2.597700200E-10,  -1.548997040E-14,
               -4.897086600E+04,  -1.730244180E+01] )
             ),
    transport = gas_transport(
                     geom = "nonlinear",
                     diam = 3.97,
                     well_depth = 436,
                     rot_relax = 2),
    note = "9/27/ 5 THERM"
       )

species(name = "OCHO",
    atoms = " C:1  H:1  O:2 ",
    thermo = (
       NASA( [  300.00,  1412.00], [  1.429918540E+00,   1.228032840E-02, 
               -5.284610960E-06,  -3.730265510E-10,   5.079535710E-13,
               -1.620428140E+04,   1.804117790E+01] ),
       NASA( [ 1412.00,  5000.00], [  6.498155600E+00,   3.223190120E-03, 
               -1.170995950E-06,   1.892729180E-10,  -1.129370000E-14,
               -1.816790420E+04,  -1.004126130E+01] )
             ),
    transport = gas_transport(
                     geom = "nonlinear",
                     diam = 3.59,
                     well_depth = 498,
                     rot_relax = 2),
    note = "9/27/ 5 THERM"
       )

species(name = "HOCH2O2H",
    atoms = " C:1  H:4  O:3 ",
    thermo = (
       NASA( [  300.00,  1422.00], [  1.857166930E+00,   3.231531320E-02, 
               -2.699289020E-05,   1.116944840E-08,  -1.812841030E-12,
               -4.003144710E+04,   1.909177290E+01] ),
       NASA( [ 1422.00,  5000.00], [  1.163038270E+01,   7.151336880E-03, 
               -2.390350300E-06,   3.657727910E-10,  -2.101995240E-14,
               -4.310792420E+04,  -3.242767250E+01] )
             ),
    transport = gas_transport(
                     geom = "nonlinear",
                     diam = 3.626,
                     well_depth = 481.8,
                     dipole = 1.7,
                     rot_relax = 1),
    note = "4/ 9/98 THERM"
       )

species(name = "HOCH2O2",
    atoms = " C:1  H:3  O:3 ",
    thermo = (
       NASA( [  300.00,  1412.00], [  2.854416210E+00,   2.336635350E-02, 
               -1.881159900E-05,   7.967095150E-09,  -1.363466180E-12,
               -2.298661960E+04,   1.517305650E+01] ),
       NASA( [ 1412.00,  5000.00], [  9.045459380E+00,   7.152233730E-03, 
               -2.370056760E-06,   3.600834810E-10,  -2.057502280E-14,
               -2.494148860E+04,  -1.742105300E+01] )
             ),
    transport = gas_transport(
                     geom = "nonlinear",
                     diam = 3.626,
                     well_depth = 481.8,
                     dipole = 1.7,
                     rot_relax = 1),
    note = "4/ 9/98 THERM"
       )

species(name = "OCH2O2H",
    atoms = " C:1  H:3  O:3 ",
    thermo = (
       NASA( [  300.00,  1420.00], [  1.938230750E+00,   3.014657300E-02, 
               -2.610531520E-05,   1.094635620E-08,  -1.783126920E-12,
               -1.381666250E+04,   1.850420020E+01] ),
       NASA( [ 1420.00,  5000.00], [  1.153982460E+01,   5.342914320E-03, 
               -1.818789170E-06,   2.819686250E-10,  -1.635843480E-14,
               -1.682374890E+04,  -3.207006330E+01] )
             ),
    transport = gas_transport(
                     geom = "nonlinear",
                     diam = 3.626,
                     well_depth = 481.8,
                     dipole = 1.7,
                     rot_relax = 1),
    note = "4/ 9/98 THERM"
       )

species(name = "HOCH2O",
    atoms = " C:1  H:3  O:2 ",
    thermo = (
       NASA( [  300.00,  1452.00], [  4.111831450E+00,   7.538506970E-03, 
                3.773373700E-06,  -5.387460050E-09,   1.456158870E-12,
               -2.280230010E+04,   7.468072540E+00] ),
       NASA( [ 1452.00,  5000.00], [  6.395215150E+00,   7.436730430E-03, 
               -2.504223540E-06,   3.848797120E-10,  -2.217786890E-14,
               -2.411088400E+04,  -6.638655830E+00] )
             ),
    transport = gas_transport(
                     geom = "nonlinear",
                     diam = 4.41,
                     well_depth = 470.6,
                     rot_relax = 1.5),
    note = "2/16/99 THERM"
       )

species(name = "CH3OH",
    atoms = " C:1  H:4  O:1 ",
    thermo = (
       NASA( [  300.00,  1985.00], [  1.821768440E+00,   1.233264200E-02, 
               -2.737421770E-06,  -1.073873180E-09,   4.236448370E-13,
               -2.522222070E+04,   1.481043000E+01] ),
       NASA( [ 1985.00,  5000.00], [  3.928675130E+00,   9.816260740E-03, 
               -3.406154760E-06,   5.355101970E-10,  -3.137760290E-14,
               -2.614541750E+04,   2.694644830E+00] )
             ),
    transport = gas_transport(
                     geom = "nonlinear",
                     diam = 3.626,
                     well_depth = 481.8,
                     rot_relax = 1),
    note = "2/25/ 4 THERM"
       )

species(name = "CH2OH",
    atoms = " C:1  H:3  O:1 ",
    thermo = (
       NASA( [  300.00,  1399.00], [  3.056742280E+00,   1.193356340E-02, 
               -8.725013030E-06,   3.827810540E-09,  -7.228879510E-13,
               -2.831401900E+03,   8.988781330E+00] ),
       NASA( [ 1399.00,  5000.00], [  5.418759130E+00,   5.661852440E-03, 
               -1.874711360E-06,   2.844419380E-10,  -1.622997980E-14,
               -3.614755400E+03,  -3.492779630E+00] )
             ),
    transport = gas_transport(
                     geom = "nonlinear",
                     diam = 3.69,
                     well_depth = 417,
                     dipole = 1.7,
                     rot_relax = 2),
    note = "2/25/ 4 THERM"
       )

species(name = "CH3O",
    atoms = " C:1  H:3  O:1 ",
    thermo = (
       NASA( [  300.00,  1509.00], [  2.230580230E+00,   8.531785860E-03, 
                1.021666240E-06,  -3.410469160E-09,   9.946910380E-13,
                9.459397080E+02,   1.283775690E+01] ),
       NASA( [ 1509.00,  5000.00], [  4.647870190E+00,   6.908306830E-03, 
               -2.344047760E-06,   3.619945700E-10,  -2.092535410E-14,
               -2.992088810E+02,  -1.577401930E+00] )
             ),
    transport = gas_transport(
                     geom = "nonlinear",
                     diam = 3.69,
                     well_depth = 417,
                     dipole = 1.7,
                     rot_relax = 2),
    note = "8/ 9/ 4 THERM"
       )

species(name = "CH3O2H",
    atoms = " C:1  H:4  O:2 ",
    thermo = (
       NASA( [  300.00,  1367.00], [  2.838800240E+00,   1.860962490E-02, 
               -8.481654120E-06,   1.003874510E-09,   1.716124290E-13,
               -1.740337530E+04,   1.160924330E+01] ),
       NASA( [ 1367.00,  5000.00], [  8.804092890E+00,   8.094272180E-03, 
               -2.858432740E-06,   4.533697540E-10,  -2.669807070E-14,
               -1.985121740E+04,  -2.170005910E+01] )
             ),
    transport = gas_transport(
                     geom = "nonlinear",
                     diam = 3.626,
                     well_depth = 481.8,
                     rot_relax = 1),
    note = "1/14/ 5 THERM"
       )

species(name = "CH3O2",
    atoms = " C:1  H:3  O:2 ",
    thermo = (
       NASA( [  300.00,  1365.00], [  3.804975900E+00,   9.807846600E-03, 
               -3.909406240E-07,  -2.230726020E-09,   6.433108200E-13,
               -4.556257960E+02,   7.817891000E+00] ),
       NASA( [ 1365.00,  5000.00], [  6.347188010E+00,   7.920893580E-03, 
               -2.766019130E-06,   4.353606310E-10,  -2.549847620E-14,
               -1.834360550E+03,  -7.425525450E+00] )
             ),
    transport = gas_transport(
                     geom = "nonlinear",
                     diam = 3.626,
                     well_depth = 481.8,
                     rot_relax = 1),
    note = "1/14/ 5 THERM"
       )

species(name = "CH4",
    atoms = " H:4  C:1 ",
    thermo = (
       NASA( [  300.00,  1462.00], [  3.721130200E+00,  -2.502932890E-03, 
                1.902465340E-05,  -1.468712530E-08,   3.437911520E-12,
               -1.014240990E+04,   1.227765960E+00] ),
       NASA( [ 1462.00,  5000.00], [  4.096176530E+00,   7.443308450E-03, 
               -2.638719000E-06,   4.195776040E-10,  -2.475080500E-14,
               -1.138357040E+04,  -4.675613830E+00] )
             ),
    transport = gas_transport(
                     geom = "nonlinear",
                     diam = 3.746,
                     well_depth = 141.4,
                     polar = 2.6,
                     rot_relax = 13),
    note = "29/11/04"
       )

species(name = "CH3",
    atoms = " C:1  H:3 ",
    thermo = (
       NASA( [  300.00,  1389.00], [  3.438581620E+00,   4.077526640E-03, 
                3.198309940E-07,  -9.476693900E-10,   2.218281660E-13,
                1.631640180E+04,   2.528074060E+00] ),
       NASA( [ 1389.00,  5000.00], [  3.512813760E+00,   5.114126130E-03, 
               -1.676320500E-06,   2.524951740E-10,  -1.433029230E-14,
                1.612380270E+04,   1.624361120E+00] )
             ),
    transport = gas_transport(
                     geom = "linear",
                     diam = 3.8,
                     well_depth = 144)
       )

species(name = "CH2",
    atoms = " C:1  H:2 ",
    thermo = (
       NASA( [  250.00,  1000.00], [  3.762237000E+00,   1.159819000E-03, 
                2.489585000E-07,   8.800836000E-10,  -7.332435000E-13,
                4.536791000E+04,   1.712578000E+00] ),
       NASA( [ 1000.00,  4000.00], [  3.636408000E+00,   1.933057000E-03, 
               -1.687016000E-07,  -1.009899000E-10,   1.808256000E-14,
                4.534134000E+04,   2.156561000E+00] )
             ),